AMOSTRA/CAP/Linhas.dss
! ==========================================================
! LINHAS — geradas de SSDMT
! Barras = PAC_1 / PAC_2 da BDGD (preservados)
! ==========================================================
New Line.25449_12641441 Bus1=25449-10684136.1 Bus2=25449-10690617.1 LineCode=CND_M10_89_1F Length=109.72 Units=m
New Line.25449_12641444 Bus1=25449-10691737.1.2.3 Bus2=25449-10691738.1.2.3 LineCode=CND_M30_40_3F Length=105.18 Units=m
New Line.25449_12641445 Bus1=25449-10691738c.1.2.3 Bus2=25449-10684139.1.2.3 LineCode=CND_M30_40_3F Length=88.98 Units=m
New Line.25449_12641446 Bus1=25449-10684139.1.2.3 Bus2=25449-10688996.1.2.3 LineCode=CND_M30_40_3F Length=91.08 Units=m
New Line.25449_12641447 Bus1=25449-10688996.1.2.3 Bus2=25449-10682285.1.2.3 LineCode=CND_M30_40_3F Length=96.74 Units=m
New Line.25449_12641449 Bus1=25449-10691739.1.2.3 Bus2=25449-10690440.1.2.3 LineCode=CND_M30_40_3F Length=71.93 Units=m
New Line.25449_12641450 Bus1=25449-10690440.1.2.3 Bus2=25449-10691740.1.2.3 LineCode=CND_M30_40_3F Length=89.29 Units=m
New Line.25449_12641451 Bus1=25449-10691740.1.2.3 Bus2=25449-10684140.1.2.3 LineCode=CND_M30_40_3F Length=103.76 Units=m
New Line.25449_12641452 Bus1=25449-10684140.1.2.3 Bus2=25449-10682286.1.2.3 LineCode=CND_M30_40_3F Length=109.65 Units=m
New Line.25449_12641453 Bus1=25449-10682286.1.2.3 Bus2=25449-10683703.1.2.3 LineCode=CND_M30_40_3F Length=104.77 Units=m
New Line.25449_12641454 Bus1=25449-10683703.1.2.3 Bus2=25449-10686682.1.2.3 LineCode=CND_M30_40_3F Length=104.07 Units=m
New Line.25449_12641367 Bus1=25449-10686350.2 Bus2=25449-10682263.2 LineCode=CND_M10_89_1F Length=93.11 Units=m
New Line.25449_12641368 Bus1=25449-10682263.2 Bus2=25449-10684111.2 LineCode=CND_M10_89_1F Length=119.86 Units=m
New Line.25449_12641369 Bus1=25449-10684111.2 Bus2=25449-10685352.2 LineCode=CND_M10_89_1F Length=122.80 Units=m
New Line.25449_12641372 Bus1=25449-10688451.2 Bus2=25449-10689135.2 LineCode=CND_M10_89_1F Length=69.35 Units=m
New Line.25449_12641373 Bus1=25449-10689135.2 Bus2=25449-10686349.2 LineCode=CND_M10_89_1F Length=78.19 Units=m
New Line.25449_12641374 Bus1=25449-10683016.2 Bus2=25449-10683673.2 LineCode=CND_M10_89_1F Length=59.63 Units=m
New Line.25449_12641375 Bus1=25449-10683673.2 Bus2=25449-10691161.2 LineCode=CND_M10_89_1F Length=82.70 Units=m
New Line.25449_12641378 Bus1=25449-10691638.1.2.3 Bus2=25449-10683674.1.2.3 LineCode=CND_M30_40_3F Length=65.53 Units=m
New Line.25449_14664552 Bus1=25449-10685104.1.2.3 Bus2=25449-12463558.1.2.3 LineCode=CND_M30_42_3F Length=72.09 Units=m
New Line.25449_14664559 Bus1=25449-12463565.1.2.3 Bus2=25449-12463566.1.2.3 LineCode=CND_M30_40_3F Length=80.66 Units=m
New Line.25449_14664560 Bus1=25449-12463558c.1.2.3 Bus2=25449-12463567.1.2.3 LineCode=CND_M30_40_3F Length=84.36 Units=m
New Line.25449_14664561 Bus1=25449-12463567.1.2.3 Bus2=25449-12463568.1.2.3 LineCode=CND_M30_40_3F Length=81.15 Units=m
New Line.25449_14664564 Bus1=25449-12463566.1.2.3 Bus2=25449-12463570.1.2.3 LineCode=CND_M30_40_3F Length=84.69 Units=m
New Line.25449_14664565 Bus1=25449-12463570.1.2.3 Bus2=25449-12463571.1.2.3 LineCode=CND_M30_40_3F Length=79.62 Units=m
New Line.25449_14664566 Bus1=25449-12463571.1.2.3 Bus2=25449-12463572.1.2.3 LineCode=CND_M30_40_3F Length=83.80 Units=m
New Line.25449_14664567 Bus1=25449-12463572.1.2.3 Bus2=25449-12463563.1.2.3 LineCode=CND_M30_40_3F Length=81.70 Units=m
New Line.11958_15422876 Bus1=11958-13224201.3 Bus2=11958-6602843.3 LineCode=CND_M10_89_1F Length=48.58 Units=m
New Line.25449_15342029 Bus1=25449-13143978.1 Bus2=25449-13144031.1 LineCode=CND_M10_40_1F Length=75.07 Units=m
New Line.25449_15342031 Bus1=25449-13143980.1 Bus2=25449-13144032.1 LineCode=CND_M10_40_1F Length=67.54 Units=m
New Line.25449_15342035 Bus1=25449-13144033.1 Bus2=25449-13143921.1 LineCode=CND_M10_40_1F Length=37.13 Units=m
New Line.25449_15342039 Bus1=25449-13143927.1 Bus2=25449-13144035.1 LineCode=CND_M10_40_1F Length=62.23 Units=m
New Line.25449_15342041 Bus1=25449-13143935.1 Bus2=25449-13144036.1 LineCode=CND_M10_40_1F Length=69.72 Units=m
New Line.25449_15342042 Bus1=25449-13144036.1 Bus2=25449-13144037.1 LineCode=CND_M10_40_1F Length=65.31 Units=m
New Line.25449_15342044 Bus1=25449-13143937.1 Bus2=25449-13144038.1 LineCode=CND_M10_40_1F Length=103.26 Units=m
New Line.25449_14893058 Bus1=25449-10685723c.1.2.3 Bus2=25449-12688400.1.2.3 LineCode=CND_M30_40_3F Length=49.53 Units=m
New Line.25449_14893061 Bus1=25449-12688400.1.2.3 Bus2=25449-12688403.1.2.3 LineCode=CND_M30_40_3F Length=53.37 Units=m
New Line.25449_14893062 Bus1=25449-12688403.1.2.3 Bus2=25449-12688404.1.2.3 LineCode=CND_M30_40_3F Length=41.63 Units=m
New Line.25449_14893064 Bus1=25449-12688404.1.2.3 Bus2=25449-12688406.1.2.3 LineCode=CND_M30_40_3F Length=55.80 Units=m
New Line.25449_14893070 Bus1=25449-12688407.1.2.3 Bus2=25449-12688412.1.2.3 LineCode=CND_M30_40_3F Length=46.21 Units=m
New Line.11972_13462999 Bus1=11972-11339776.1.2.3 Bus2=11972-6663513.1.2.3 LineCode=CND_M30_89_3F Length=56.35 Units=m
New Line.11972_8914045 Bus1=11972-7639515c.2 Bus2=11972-6661975.2 LineCode=CND_M10_89_1F Length=27.63 Units=m
New Line.11972_8914046 Bus1=11972-7639516c.3 Bus2=11972-6663258.3 LineCode=CND_M10_89_1F Length=105.04 Units=m
New Line.11972_8914050 Bus1=11972-7639520c.2 Bus2=11972-6664652.2 LineCode=CND_M10_89_1F Length=27.64 Units=m
New Line.11958_8888776 Bus1=11958-7613849c.1.2.3 Bus2=11958-6603246.1.2.3 LineCode=CND_M30_42_3F Length=6.76 Units=m
New Line.11958_8888780 Bus1=11958-7613853c.1 Bus2=11958-6604050.1 LineCode=CND_M10_42_1F Length=51.00 Units=m
New Line.11958_8888761 Bus1=11958-7613834c.2 Bus2=11958-6601610.2 LineCode=CND_M10_89_1F Length=24.08 Units=m
New Line.11958_8888765 Bus1=11958-7613838c.1 Bus2=11958-6603718.1 LineCode=CND_M10_89_1F Length=91.18 Units=m
New Line.11958_8888766 Bus1=11958-7613839c.1.2.3 Bus2=11958-6601218.1.2.3 LineCode=CND_M30_29_3F Length=34.92 Units=m
New Line.11958_8888770 Bus1=11958-7613843.1.2.3 Bus2=11958-6604616.1.2.3 LineCode=CND_M30_42_3F Length=11.26 Units=m
New Line.11958_8888771 Bus1=11958-7613844c.2 Bus2=11958-6602310.2 LineCode=CND_M10_39_1F Length=97.22 Units=m
New Line.11958_8888772 Bus1=11958-7613845c.1.2.3 Bus2=11958-6602169.1.2.3 LineCode=CND_M30_89_3F Length=72.17 Units=m
New Line.11920_8888719 Bus1=11920-7613792c.2 Bus2=11920-6489647.2 LineCode=CND_M10_89_1F Length=92.52 Units=m
New Line.11920_8888720 Bus1=11920-7613793c.1.2.3 Bus2=11920-6484595.1.2.3 LineCode=CND_M30_39_3F Length=90.72 Units=m
New Line.11920_8888724 Bus1=11920-7613797c.2 Bus2=11920-6492606.2 LineCode=CND_M10_29_1F Length=52.63 Units=m
New Line.26842_8888726 Bus1=26842-7613799c.1 Bus2=26842-6490224.1 LineCode=CND_M10_89_1F Length=88.75 Units=m
New Line.11924_8888731 Bus1=11924-7613804c.2 Bus2=11924-6499210.2 LineCode=CND_M10_89_1F Length=25.01 Units=m
New Line.11924_8888733 Bus1=11924-7613806c.1.2.3 Bus2=11924-6497614.1.2.3 LineCode=CND_M30_89_3F Length=43.89 Units=m
New Line.11924_8888734 Bus1=11924-7613807c.3 Bus2=11924-6497449.3 LineCode=CND_M10_40_1F Length=25.96 Units=m
New Line.11924_8888735 Bus1=11924-7613808c.2 Bus2=11924-6499093.2 LineCode=CND_M10_89_1F Length=74.84 Units=m
New Line.11924_8888737 Bus1=11924-7613810c.3 Bus2=11924-6499880.3 LineCode=CND_M10_89_1F Length=73.00 Units=m
New Line.16114_12986413 Bus1=16114-10917383.2 Bus2=16114-10912266.2 LineCode=CND_M10_89_1F Length=85.82 Units=m
New Line.16114_12986414 Bus1=16114-10914511.2 Bus2=16114-10912262.2 LineCode=CND_M10_89_1F Length=57.86 Units=m
New Line.16114_12986418 Bus1=16114-10914532.2 Bus2=16114-10919169.2 LineCode=CND_M10_89_1F Length=93.77 Units=m
New Line.16114_12986420 Bus1=16114-10913256.2 Bus2=16114-10915309.2 LineCode=CND_M10_89_1F Length=114.97 Units=m
New Line.16114_12986421 Bus1=16114-10914515.2 Bus2=16114-10913256.2 LineCode=CND_M10_89_1F Length=108.14 Units=m
New Line.16114_12986290 Bus1=16114-10912201c.2 Bus2=16114-10918193.2 LineCode=CND_M10_89_1F Length=55.93 Units=m
New Line.16114_12986291 Bus1=16114-10917282.2 Bus2=16114-10915959.2 LineCode=CND_M10_89_1F Length=114.78 Units=m
New Line.16114_12986294 Bus1=16114-10912205.1.2.3 Bus2=16114-10917624.1.2.3 LineCode=CND_M30_40_3F Length=102.33 Units=m
New Line.16114_12986402 Bus1=16114-10913252.2 Bus2=16114-10913250.2 LineCode=CND_M10_89_1F Length=207.28 Units=m
New Line.16114_12986403 Bus1=16114-10913250.2 Bus2=16114-10917364.2 LineCode=CND_M10_89_1F Length=201.88 Units=m
New Line.16114_12986404 Bus1=16114-10917364.2 Bus2=16114-10912254.2 LineCode=CND_M10_89_1F Length=178.91 Units=m
New Line.16114_12986375 Bus1=16114-10919413.1.2.3 Bus2=16114-10918653.1.2.3 LineCode=CND_M30_33_3F Length=35.14 Units=m
New Line.16114_12986379 Bus1=16114-10919412.1.2.3 Bus2=16114-10919053.1.2.3 LineCode=CND_M30_33_3F Length=3.55 Units=m
New Line.16114_12986380 Bus1=16114-10919053.1.2.3 Bus2=16114-10917004.1.2.3 LineCode=CND_M30_33_3F Length=46.64 Units=m
New Line.16114_12986382 Bus1=16114-10917295.1.2.3 Bus2=16114-10913219.1.2.3 LineCode=CND_M30_39_3F Length=34.86 Units=m
New Line.16114_12986385 Bus1=16114-10919424.2 Bus2=16114-10916344.2 LineCode=CND_M10_89_1F Length=76.48 Units=m
New Line.16114_12986386 Bus1=16114-10918367.2 Bus2=16114-10919424.2 LineCode=CND_M10_89_1F Length=74.34 Units=m
New Line.16114_12986387 Bus1=16114-10915205.2 Bus2=16114-10917328.2 LineCode=CND_M10_89_1F Length=51.84 Units=m
New Line.16114_12986388 Bus1=16114-10917328.2 Bus2=16114-10918367.2 LineCode=CND_M10_89_1F Length=55.20 Units=m
New Line.16114_12986489 Bus1=16114-10914489.1 Bus2=16114-10912223.1 LineCode=CND_M10_89_1F Length=118.34 Units=m
New Line.16114_12986356 Bus1=16114-10918396.1.2.3 Bus2=16114-10917084.1.2.3 LineCode=CND_M30_39_3F Length=45.02 Units=m
New Line.16114_12986357 Bus1=16114-10917084.1.2.3 Bus2=16114-10911999.1.2.3 LineCode=CND_M30_39_3F Length=35.52 Units=m
New Line.16114_12986361 Bus1=16114-10913000.1.2.3 Bus2=16114-10914294.1.2.3 LineCode=CND_M30_89_3F Length=32.84 Units=m
New Line.16114_12986363 Bus1=16114-10919408.1.2.3 Bus2=16114-10915108.1.2.3 LineCode=CND_M30_89_3F Length=33.97 Units=m
New Line.16114_12986364 Bus1=16114-10915108.1.2.3 Bus2=16114-10912356.1.2.3 LineCode=CND_M30_89_3F Length=37.34 Units=m
New Line.16114_12986368 Bus1=16114-10916133.2 Bus2=16114-10913046.2 LineCode=CND_M10_89_1F Length=58.35 Units=m
New Line.16114_12986370 Bus1=16114-10919412.1.2.3 Bus2=16114-10919049.1.2.3 LineCode=CND_M30_89_3F Length=46.03 Units=m
New Line.16114_12986371 Bus1=16114-10919412.1.2.3 Bus2=16114-10916439.1.2.3 LineCode=CND_M30_33_3F Length=16.73 Units=m
New Line.16114_12986470 Bus1=16114-10915601.2 Bus2=16114-10915273.2 LineCode=CND_M10_89_1F Length=62.29 Units=m
New Line.16114_12986472 Bus1=16114-10918667c.1 Bus2=16114-10913228.1 LineCode=CND_M10_89_1F Length=73.12 Units=m
New Line.16114_12986473 Bus1=16114-10913228.1 Bus2=16114-10913320c.1 LineCode=CND_M10_89_1F Length=119.41 Units=m
New Line.16114_12986477 Bus1=16114-10915081.1 Bus2=16114-10914316.1 LineCode=CND_M10_89_1F Length=33.07 Units=m
New Line.16114_12986479 Bus1=16114-10912017.1 Bus2=16114-10915085.1 LineCode=CND_M10_89_1F Length=59.54 Units=m
New Line.16114_12986480 Bus1=16114-10915085.1 Bus2=16114-10915089.1 LineCode=CND_M10_89_1F Length=64.02 Units=m
New Line.16114_12986484 Bus1=16114-10918669.1 Bus2=16114-10918671.1 LineCode=CND_M10_89_1F Length=117.77 Units=m
New Line.16114_12986485 Bus1=16114-10918671.1 Bus2=16114-10913230.1 LineCode=CND_M10_89_1F Length=118.51 Units=m
New Line.16114_12986486 Bus1=16114-10913230.1 Bus2=16114-10912221.1 LineCode=CND_M10_89_1F Length=118.75 Units=m
New Line.16114_12986453 Bus1=16114-10917371.2 Bus2=16114-10919165.2 LineCode=CND_M10_89_1F Length=286.99 Units=m
New Line.16114_12986455 Bus1=16114-10918677.2 Bus2=16114-10919163.2 LineCode=CND_M10_89_1F Length=129.04 Units=m
New Line.16114_12986456 Bus1=16114-10919163.2 Bus2=16114-10917334.2 LineCode=CND_M10_89_1F Length=94.03 Units=m
New Line.16114_12986457 Bus1=16114-10914499.2 Bus2=16114-10915311.2 LineCode=CND_M10_89_1F Length=215.90 Units=m
New Line.16114_12986460 Bus1=16114-10917334.2 Bus2=16114-10918381.2 LineCode=CND_M10_89_1F Length=57.02 Units=m
New Line.16114_12986469 Bus1=16114-10915603.2 Bus2=16114-10915601.2 LineCode=CND_M10_89_1F Length=52.77 Units=m
New Line.16114_12986436 Bus1=16114-10913232.2 Bus2=16114-10917322.2 LineCode=CND_M10_89_1F Length=92.02 Units=m
New Line.16114_12986437 Bus1=16114-10915311.2 Bus2=16114-10917371.2 LineCode=CND_M10_89_1F Length=129.42 Units=m
New Line.16114_12986438 Bus1=16114-10917371.2 Bus2=16114-10913232.2 LineCode=CND_M10_89_1F Length=94.20 Units=m
New Line.16114_12986440 Bus1=16114-10916354.2 Bus2=16114-10916356.2 LineCode=CND_M10_89_1F Length=102.06 Units=m
New Line.16114_12986441 Bus1=16114-10913234.2 Bus2=16114-10918675.2 LineCode=CND_M10_89_1F Length=101.52 Units=m
New Line.16114_12986442 Bus1=16114-10918675.2 Bus2=16114-10916354.2 LineCode=CND_M10_89_1F Length=101.86 Units=m
New Line.16114_12986445 Bus1=16114-10913260.2 Bus2=16114-10917324.2 LineCode=CND_M10_89_1F Length=122.33 Units=m
New Line.16114_12986547 Bus1=16114-10911413.1.2.3 Bus2=16114-10911439.1.2.3 LineCode=CND_M30_32_3F Length=29.69 Units=m
New Line.16114_12986548 Bus1=16114-10911439.1.2.3 Bus2=16114-10911468.1.2.3 LineCode=CND_M30_32_3F Length=40.98 Units=m
New Line.16114_12986549 Bus1=16114-10911468.1.2.3 Bus2=16114-10911387.1.2.3 LineCode=CND_M30_32_3F Length=36.42 Units=m
New Line.16114_12986550 Bus1=16114-10911387.1.2.3 Bus2=16114-10911496.1.2.3 LineCode=CND_M30_32_3F Length=24.10 Units=m
New Line.16114_12986552 Bus1=16114-10911472.1.2.3 Bus2=16114-10911497.1.2.3 LineCode=CND_M30_32_3F Length=37.88 Units=m
New Line.16114_12986423 Bus1=16114-10917332.2 Bus2=16114-10915203.2 LineCode=CND_M10_89_1F Length=110.44 Units=m
New Line.16114_12986425 Bus1=16114-10917366.2 Bus2=16114-10919159.2 LineCode=CND_M10_89_1F Length=86.23 Units=m
New Line.16114_12986426 Bus1=16114-10918377.2 Bus2=16114-10917366.2 LineCode=CND_M10_89_1F Length=135.75 Units=m
New Line.16114_12986430 Bus1=16114-10914517.2 Bus2=16114-10919161.2 LineCode=CND_M10_89_1F Length=85.27 Units=m
New Line.16114_12986533 Bus1=16114-10911359.1.2.3 Bus2=16114-10911363.1.2.3 LineCode=CND_M30_32_3F Length=42.66 Units=m
New Line.16114_12986536 Bus1=16114-10911433.1.2.3 Bus2=16114-10911519.1.2.3 LineCode=CND_M30_32_3F Length=53.96 Units=m
New Line.16114_12986539 Bus1=16114-10911457.1.2.3 Bus2=16114-10911459.1.2.3 LineCode=CND_M30_32_3F Length=56.80 Units=m
New Line.16114_12986546 Bus1=16114-10911411.1.2.3 Bus2=16114-10911413.1.2.3 LineCode=CND_M30_32_3F Length=58.60 Units=m
New Line.16114_12986512 Bus1=16114-10914534c.1.2.3 Bus2=16114-10918609.1.2.3 LineCode=CND_M30_40_3F Length=99.92 Units=m
New Line.16114_12986513 Bus1=16114-10915219.2 Bus2=16114-10913322.2 LineCode=CND_M10_89_1F Length=89.13 Units=m
New Line.16114_12986514 Bus1=16114-10914536.2 Bus2=16114-10915219.2 LineCode=CND_M10_89_1F Length=112.55 Units=m
New Line.16114_12986515 Bus1=16114-10915315.2 Bus2=16114-10914536.2 LineCode=CND_M10_89_1F Length=114.41 Units=m
New Line.16114_12986516 Bus1=16114-10915865.2 Bus2=16114-11297506.2 LineCode=CND_M10_89_1F Length=11.22 Units=m
New Line.16114_12986517 Bus1=16114-10918402.2 Bus2=16114-10915315.2 LineCode=CND_M10_89_1F Length=93.59 Units=m
New Line.16114_12986518 Bus1=16114-10911367.1.2.3 Bus2=16114-10911405.1.2.3 LineCode=CND_M30_32_3F Length=49.77 Units=m
New Line.16114_12986520 Bus1=16114-10911492.1.2.3 Bus2=16114-10911466.1.2.3 LineCode=CND_M30_32_3F Length=45.63 Units=m
New Line.16114_12986521 Bus1=16114-10911466.1.2.3 Bus2=16114-10911494.1.2.3 LineCode=CND_M30_32_3F Length=59.78 Units=m
New Line.16114_12986527 Bus1=16114-10911490.1.2.3 Bus2=16114-10911403.1.2.3 LineCode=CND_M30_42_3F Length=46.91 Units=m
New Line.16114_12986494 Bus1=16114-10916346.2 Bus2=16114-10915603.2 LineCode=CND_M10_89_1F Length=169.10 Units=m
New Line.16114_12986495 Bus1=16114-10917336.2 Bus2=16114-10915605.2 LineCode=CND_M10_89_1F Length=69.13 Units=m
New Line.16114_12986496 Bus1=16114-10912243.2 Bus2=16114-10917336.2 LineCode=CND_M10_89_1F Length=57.38 Units=m
New Line.16114_12986497 Bus1=16114-10915277.2 Bus2=16114-10912243.2 LineCode=CND_M10_89_1F Length=47.06 Units=m
New Line.16114_12986501 Bus1=16114-10915189.2 Bus2=16114-10913235.2 LineCode=CND_M10_89_1F Length=18.02 Units=m
New Line.16114_12986502 Bus1=16114-10918679.2 Bus2=16114-10915189.2 LineCode=CND_M10_89_1F Length=70.65 Units=m
New Line.16114_12986503 Bus1=16114-10917375.2 Bus2=16114-10918679.2 LineCode=CND_M10_89_1F Length=149.76 Units=m
New Line.16114_12986504 Bus1=16114-10917354.2 Bus2=16114-10917375.2 LineCode=CND_M10_89_1F Length=100.26 Units=m
New Line.16114_12986505 Bus1=16114-10918387.2 Bus2=16114-11297505.2 LineCode=CND_M10_89_1F Length=40.49 Units=m
New Line.16114_12986506 Bus1=16114-10912233.2 Bus2=16114-10917354.2 LineCode=CND_M10_89_1F Length=95.62 Units=m
New Line.16114_12986608 Bus1=16114-10917837.1.2.3 Bus2=16114-10914538.1.2.3 LineCode=CND_M30_42_3F Length=61.34 Units=m
New Line.16114_12986610 Bus1=16114-10917628.1.2.3 Bus2=16114-10916360.1.2.3 LineCode=CND_M30_42_3F Length=89.55 Units=m
New Line.16114_12986611 Bus1=16114-10917632.1.2.3 Bus2=16114-10917839.1.2.3 LineCode=CND_M30_42_3F Length=101.67 Units=m
New Line.16114_12986612 Bus1=16114-10914538.1.2.3 Bus2=16114-10914215.1.2.3 LineCode=CND_M30_42_3F Length=60.85 Units=m
New Line.16114_12986614 Bus1=16114-10916360.1.2.3 Bus2=16114-10916024.1.2.3 LineCode=CND_M30_42_3F Length=107.97 Units=m
New Line.16114_12986616 Bus1=16114-10917069.1.2.3 Bus2=16114-10919399.1.2.3 LineCode=CND_M30_40_3F Length=101.98 Units=m
New Line.16114_12986617 Bus1=16114-10917071.1.2.3 Bus2=16114-10916068.1.2.3 LineCode=CND_M30_40_3F Length=105.90 Units=m
New Line.16114_12986618 Bus1=16114-10912980.1.2.3 Bus2=16114-10913943.1.2.3 LineCode=CND_M30_40_3F Length=100.90 Units=m
New Line.16114_12986619 Bus1=16114-10912928.1.2.3 Bus2=16114-10917820.1.2.3 LineCode=CND_M30_40_3F Length=103.74 Units=m
New Line.16114_12986490 Bus1=16114-10912223.1 Bus2=16114-10915583.1 LineCode=CND_M10_89_1F Length=118.19 Units=m
New Line.16114_12986491 Bus1=16114-10915583.1 Bus2=16114-10912225.1 LineCode=CND_M10_89_1F Length=117.85 Units=m
New Line.16114_12986588 Bus1=16114-10913898c.1.2.3 Bus2=16114-10911482.1.2.3 LineCode=CND_M30_39_3F Length=26.39 Units=m
New Line.16114_12986589 Bus1=16114-10911482.1.2.3 Bus2=16114-10917419.1.2.3 LineCode=CND_M30_39_3F Length=11.21 Units=m
New Line.16114_12986591 Bus1=16114-10911515.2 Bus2=16114-10919468.2 LineCode=CND_M10_89_1F Length=51.82 Units=m
New Line.16114_12986600 Bus1=16114-10912211.1.2.3 Bus2=16114-10917395.1.2.3 LineCode=CND_M30_40_3F Length=56.18 Units=m
New Line.16114_12986604 Bus1=16114-10916358.1.2.3 Bus2=16114-10917397.1.2.3 LineCode=CND_M30_89_3F Length=102.00 Units=m
New Line.16114_12986663 Bus1=16114-10913276.1.2.3 Bus2=16114-10911997.1.2.3 LineCode=CND_M30_89_3F Length=8.66 Units=m
New Line.16114_12986664 Bus1=16114-10914546.1.2.3 Bus2=16114-10919450.1.2.3 LineCode=CND_M30_89_3F Length=31.68 Units=m
New Line.16114_12986665 Bus1=16114-10919450c.1.2.3 Bus2=16114-10913324.1.2.3 LineCode=CND_M30_89_3F Length=19.28 Units=m
New Line.16114_12986670 Bus1=16114-10917076.1.2.3 Bus2=16114-10911536.1.2.3 LineCode=CND_M30_40_3F Length=29.46 Units=m
New Line.16114_12986671 Bus1=16114-10911536.1.2.3 Bus2=16114-10915247.1.2.3 LineCode=CND_M30_40_3F Length=9.36 Units=m
New Line.16114_12986672 Bus1=16114-12788916.1.2.3 Bus2=16114-6520919c.1.2.3 LineCode=CND_M30_42_3F Length=24.28 Units=m
New Line.16114_12986673 Bus1=16114-10911353.1.2.3 Bus2=16114-10911357.1.2.3 LineCode=CND_M30_32_3F Length=65.14 Units=m
New Line.16114_12986676 Bus1=16114-10911363.1.2.3 Bus2=16114-10913268.1.2.3 LineCode=CND_M30_32_3F Length=26.90 Units=m
New Line.16114_12986677 Bus1=16114-10913268.1.2.3 Bus2=16114-10911488.1.2.3 LineCode=CND_M30_32_3F Length=0.44 Units=m
New Line.16114_12986678 Bus1=16114-10913268.1.2.3 Bus2=16114-10911367.1.2.3 LineCode=CND_M30_32_3F Length=25.41 Units=m
New Line.16114_12986679 Bus1=16114-10913268.1.2.3 Bus2=16114-10911423.1.2.3 LineCode=CND_M30_32_3F Length=21.04 Units=m
New Line.16114_12986570 Bus1=16114-10911376.1.2.3 Bus2=16114-10911509.1.2.3 LineCode=CND_M30_32_3F Length=73.21 Units=m
New Line.16114_12986573 Bus1=16114-10911395.1.2.3 Bus2=16114-10911463.1.2.3 LineCode=CND_M30_32_3F Length=66.31 Units=m
New Line.16114_12986575 Bus1=16114-10911503.1.2.3 Bus2=16114-10911530.1.2.3 LineCode=CND_M30_32_3F Length=56.86 Units=m
New Line.16114_12986576 Bus1=16114-10911530.1.2.3 Bus2=16114-10911476.1.2.3 LineCode=CND_M30_32_3F Length=40.79 Units=m
New Line.16114_12986577 Bus1=16114-10911476.1.2.3 Bus2=16114-10911465.1.2.3 LineCode=CND_M30_32_3F Length=35.51 Units=m
New Line.16114_12986578 Bus1=16114-10911465.1.2.3 Bus2=16114-10911505.1.2.3 LineCode=CND_M30_32_3F Length=37.33 Units=m
New Line.16114_12986579 Bus1=16114-10911505.1.2.3 Bus2=16114-10911507.1.2.3 LineCode=CND_M30_32_3F Length=42.35 Units=m
New Line.16114_12986581 Bus1=16114-10911532.1.2.3 Bus2=16114-10911397.1.2.3 LineCode=CND_M30_32_3F Length=43.18 Units=m
New Line.16114_12986582 Bus1=16114-10911397.1.2.3 Bus2=16114-10911478.1.2.3 LineCode=CND_M30_32_3F Length=40.45 Units=m
New Line.16114_12986585 Bus1=16114-10911480.1.2.3 Bus2=16114-10913287.1.2.3 LineCode=CND_M30_39_3F Length=2.40 Units=m
New Line.16114_12986555 Bus1=16114-10911521.1.2.3 Bus2=16114-10911389.1.2.3 LineCode=CND_M30_32_3F Length=37.38 Units=m
New Line.16114_12986556 Bus1=16114-10911372.1.2.3 Bus2=16114-10911443.1.2.3 LineCode=CND_M30_32_3F Length=31.27 Units=m
New Line.16114_12986557 Bus1=16114-10911525.1.2.3 Bus2=16114-10911372.1.2.3 LineCode=CND_M30_32_3F Length=67.89 Units=m
New Line.16114_12986558 Bus1=16114-10911527.1.2.3 Bus2=16114-10911525.1.2.3 LineCode=CND_M30_32_3F Length=65.09 Units=m
New Line.16114_12986561 Bus1=16114-10911389.1.2.3 Bus2=16114-10911391.1.2.3 LineCode=CND_M30_32_3F Length=39.86 Units=m
New Line.16114_12986562 Bus1=16114-10911391.1.2.3 Bus2=16114-10911523.1.2.3 LineCode=CND_M30_32_3F Length=48.04 Units=m
New Line.16114_12986565 Bus1=16114-10911443.1.2.3 Bus2=16114-10911499.1.2.3 LineCode=CND_M30_32_3F Length=66.76 Units=m
New Line.16114_12986567 Bus1=16114-10911501.1.2.3 Bus2=16114-10911374.1.2.3 LineCode=CND_M30_32_3F Length=34.62 Units=m
New Line.16114_12986568 Bus1=16114-10911374.1.2.3 Bus2=16114-10911415.1.2.3 LineCode=CND_M30_32_3F Length=55.18 Units=m
New Line.16114_12986656 Bus1=16114-10919446.1.2.3 Bus2=16114-10914546.1.2.3 LineCode=CND_M30_89_3F Length=31.80 Units=m
New Line.16114_12986657 Bus1=16114-10917413.1.2.3 Bus2=16114-10916465.1.2.3 LineCode=CND_M30_89_3F Length=37.36 Units=m
New Line.16114_12986658 Bus1=16114-10919173.1.2.3 Bus2=16114-10919446.1.2.3 LineCode=CND_M30_89_3F Length=41.26 Units=m
New Line.16114_12986636 Bus1=16114-10911870.1.2.3 Bus2=16114-10912282.1.2.3 LineCode=CND_M30_40_3F Length=78.77 Units=m
New Line.16114_12986694 Bus1=16114-10918711.1.2.3 Bus2=16114-10917409.1.2.3 LineCode=CND_M30_32_3F Length=20.95 Units=m
New Line.16114_12986695 Bus1=16114-10911407.1.2.3 Bus2=16114-10918711.1.2.3 LineCode=CND_M30_32_3F Length=29.24 Units=m
New Line.16114_12986698 Bus1=16114-10912300c.1.2.3 Bus2=16114-10917413.1.2.3 LineCode=CND_M30_89_3F Length=38.98 Units=m
New Line.16114_12986699 Bus1=16114-10917411.1.2.3 Bus2=16114-10912300.1.2.3 LineCode=CND_M30_89_3F Length=24.00 Units=m
New Line.16114_12986700 Bus1=16114-10913280.1.2.3 Bus2=16114-10916332.1.2.3 LineCode=CND_M30_89_3F Length=36.52 Units=m
New Line.16114_12986702 Bus1=16114-10915167.2 Bus2=16114-10912144.2 LineCode=CND_M10_89_1F Length=112.04 Units=m
...
